Circuit: * C:\users\user\Desktop\Documents\100 days wake up\Electronics\ECG 12 Lead \LPF\Simulation\Low Pass Filter.asc

Direct Newton iteration for .op point succeeded.

Date: Wed Oct 22 10:21:37 2025
Total elapsed time: 0.351 seconds.

tnom = 27
temp = 27
method = trap
totiter = 27
traniter = 0
tranpoints = 0
accept = 0
rejected = 0
matrix size = 12
fillins = 1
solver = Normal
Matrix Compiler1:      61 opcodes
Matrix Compiler2: 1.06 KB object code size
